*Heading
** Job name: Job-45 Model name: kaikou-shiyan-buckleimperfection
** Generated by: Abaqus/CAE 2024
*Preprint, echo=NO, model=NO, history=NO, contact=NO
** ----------------------------------------------------------------
** 
** PART INSTANCE: Part-3-2
** 
*Node
      1,        -450.,           0.,        -375.
      2,        -200.,           0.,        -375.
      3,        -200.,           0.,           0.
      4,        -450.,           0.,           0.
      5,        -450.,           0.,        -525.
      6,        -200.,           0.,        -525.
      7,         200.,           0.,        -375.
      8,         450.,           0.,        -375.
      9,         450.,           0.,           0.
     10,         200.,           0.,           0.
     11,         450.,           0.,        -525.
     12,         200.,           0.,        -525.
     13,         200.,           0.,        -900.
     14,         450.,           0.,        -900.
     15,          75.,           0.,        -375.
     16,          75.,           0.,           0.
     17,          75.,           0.,        -525.
     18,          75.,           0.,        -900.
     19,         -75.,           0.,        -525.
     20,        -200.,           0.,        -900.
** ... 536 like lines cut
*Element, type=S4R
 1,   1,  33, 265,  54
 2,  33,  34, 266, 265
 3,  34,  35, 267, 266
 4,  35,  36, 268, 267
 5,  36,   2,  37, 268
 6,  54, 265, 269,  53
 7, 265, 266, 270, 269
 8, 266, 267, 271, 270
 9, 267, 268, 272, 271
10, 268,  37,  38, 272
11,  53, 269, 273,  52
12, 269, 270, 274, 273
13, 270, 271, 275, 274
14, 271, 272, 276, 275
15, 272,  38,  39, 276
16,  52, 273, 277,  51
17, 273, 274, 278, 277
18, 274, 275, 279, 278
19, 275, 276, 280, 279
20, 276,  39,  40, 280
** ... 484 like lines cut
*Nset, nset=Part-3-2_Set-7
   1,   4,   5,  30,  31,  32,  48,  49,  50,  51,  52,  53,  54,  61,  62, 234
 235, 236, 237, 238, 239, 240, 241, 242, 243, 244, 245, 246, 247, 248, 249, 250
 251, 252, 253, 254, 255, 256, 257, 258, 259, 260, 511, 512, 513, 514, 515, 516
 517, 518, 519, 520, 521, 522, 523, 524, 525, 526, 527, 528
*Elset, elset=Part-3-2_Set-7, generate
 427,  464,    1
*Nset, nset=Part-3-2_Set-8
   8,   9,  11,  14,  24,  25,  67,  68,  69,  70,  71,  72,  73, 100, 101, 102
 103, 104, 105, 106, 170, 171, 172, 173, 174, 175, 176, 177, 178, 179, 180, 181
 182, 183, 184, 185, 186, 187, 188, 189, 190, 191, 445, 446, 447, 448, 449, 450
 451, 452, 453, 454, 455, 456, 457, 458, 459, 460, 461, 462
*Elset, elset=Part-3-2_Set-8, generate
 289,  326,    1
*Nset, nset=Part-3-2_Set-9
   1,   2,   3,   4,   5,   6,   7,   8,   9,  10,  11,  12,  13,  14,  15,  16
  17,  18,  19,  20,  21,  22,  23,  32,  33,  34,  35,  36,  37,  38,  39,  40
  41,  42,  43,  44,  45,  46,  47,  48,  49,  50,  51,  52,  53,  54,  55,  56
  57,  58,  59,  60,  61,  62,  63,  64,  65,  66,  67,  68,  69,  70,  71,  72
  73,  74,  75,  76,  77,  78,  79,  80,  81,  82,  83,  84,  85,  86,  87,  88
  89,  90,  91,  92,  93,  94,  95,  96,  97,  98,  99, 100, 101, 102, 103, 104
 105, 106, 107, 108, 109, 110, 111, 112, 113, 114, 115, 116, 117, 118, 119, 120
 121, 122, 123, 124, 125, 126, 127, 128, 129, 130, 131, 132, 133, 134, 135, 136
 137, 138, 139, 140, 141, 142, 143, 144, 145, 146, 147, 148, 149, 150, 151, 152
 153, 154, 155, 156, 157, 158, 159, 160, 161, 162, 163, 164, 165, 166, 167, 168
 169, 190, 191, 232, 233, 254, 255, 256, 257, 258, 259, 260, 261, 262, 263, 264
 265, 266, 267, 268, 269, 270, 271, 272, 273, 274, 275, 276, 277, 278, 279, 280
 281, 282, 283, 284, 285, 286, 287, 288, 289, 290, 291, 292, 293, 294, 295, 296
 297, 298, 299, 300, 301, 302, 303, 304, 305, 306, 307, 308, 309, 310, 311, 312
 313, 314, 315, 316, 317, 318, 319, 320, 321, 322, 323, 324, 325, 326, 327, 328
 329, 330, 331, 332, 333, 334, 335, 336, 337, 338, 339, 340, 341, 342, 343, 344
 345, 346, 347, 348, 349, 350, 351, 352, 353, 354, 355, 356, 357, 358, 359, 360
 361, 362, 363, 364, 365, 366, 367, 368, 369, 370, 371, 372, 373, 374, 375, 376
 377, 378, 379, 380, 381, 382, 383, 384, 385, 386, 387, 388, 389, 390, 391, 392
 393, 394, 395, 396, 397, 398, 399, 400, 401, 402, 403, 404, 405, 406, 407, 408
** ... 5 like lines cut
*Elset, elset=Part-3-2_Set-9
   1,   2,   3,   4,   5,   6,   7,   8,   9,  10,  11,  12,  13,  14,  15,  16
  17,  18,  19,  20,  21,  22,  23,  24,  25,  26,  27,  28,  29,  30,  31,  32
  33,  34,  35,  36,  37,  38,  39,  40,  41,  42,  43,  44,  45,  46,  47,  48
  49,  50,  51,  52,  53,  54,  55,  56,  57,  58,  59,  60,  61,  62,  63,  64
  65,  66,  67,  68,  69,  70,  71,  72,  73,  74,  75,  76,  77,  78,  79,  80
  81,  82,  83,  84,  85,  86,  87,  88,  89,  90,  91,  92,  93,  94,  95,  96
  97,  98,  99, 100, 101, 102, 103, 104, 105, 106, 107, 108, 109, 110, 111, 112
 113, 114, 115, 116, 117, 118, 119, 120, 121, 122, 123, 124, 125, 126, 127, 128
 129, 130, 131, 132, 133, 134, 135, 136, 137, 138, 139, 140, 141, 142, 143, 144
 145, 146, 147, 148, 149, 150, 151, 152, 153, 154, 155, 156, 157, 158, 159, 160
 161, 162, 163, 164, 165, 166, 167, 168, 169, 170, 171, 172, 173, 174, 175, 176
 177, 178, 179, 180, 181, 182, 183, 184, 185, 186, 187, 188, 189, 190, 191, 192
 193, 194, 195, 196, 197, 198, 199, 200, 201, 202, 203, 204, 205, 206, 207, 208
 209, 210, 211, 212, 213, 214, 215, 216, 217, 218, 219, 220, 221, 222, 223, 224
 225, 226, 227, 228, 229, 230, 231, 232, 233, 234, 235, 236, 237, 238, 239, 240
 241, 242, 243, 244, 245, 246, 247, 248, 249, 250, 251, 252, 253, 254, 255, 256
 257, 258, 259, 260, 261, 262, 263, 264, 265, 266, 267, 268, 269, 270, 271, 272
 273, 274, 275, 276, 277, 278, 279, 280, 281, 282, 283, 284, 285, 286, 287, 288
 365, 366, 367, 368, 369, 370, 371, 372, 373, 374, 375, 376, 377, 378, 379, 418
 419, 420, 421, 422, 423, 424, 425, 426, 465, 466, 467, 468, 469, 470, 471, 472
 473, 474, 475, 476, 477, 478, 479, 480, 481, 482, 483, 484, 485, 486, 487, 488
 489, 490, 491, 492, 493, 494, 495, 496, 497, 498, 499, 500, 501, 502, 503, 504
*Nset, nset=Part-3-2_Set-10
   2,   3,   6,   7,  10,  12,  13,  20,  26,  27,  28,  29,  37,  38,  39,  40
  41,  42,  43,  59,  60,  78,  79,  80,  81,  82,  83,  84,  89,  90,  91,  92
  93,  94,  95, 131, 132, 133, 134, 135, 136, 137, 158, 159, 192, 193, 194, 195
 196, 197, 198, 199, 200, 201, 202, 203, 204, 205, 206, 207, 208, 209, 210, 211
 212, 213, 214, 215, 216, 217, 218, 219, 220, 221, 222, 223, 224, 225, 226, 227
 228, 229, 230, 231, 463, 464, 465, 466, 467, 468, 469, 470, 471, 472, 473, 474
 475, 476, 477, 478, 479, 480, 489, 490, 491, 492, 493, 494, 495, 496, 497, 498
 499, 500, 501, 502, 503, 504, 505, 506
*Elset, elset=Part-3-2_Set-10
 327, 328, 329, 330, 331, 332, 333, 334, 335, 336, 337, 338, 339, 340, 341, 342
 343, 344, 345, 346, 347, 348, 349, 350, 351, 352, 353, 354, 355, 356, 357, 358
 359, 360, 361, 362, 363, 364, 380, 381, 382, 383, 384, 385, 386, 387, 388, 389
 390, 391, 392, 393, 394, 395, 396, 397, 398, 399, 400, 401, 402, 403, 404, 405
 406, 407, 408, 409, 410, 411, 412, 413, 414, 415, 416, 417
** Section: Section-4mm
*Shell Section, elset=Part-3-2_Set-9, material=steel-NEW, offset=SNEG
4.5, 5
** Section: Section-6mm
*Shell Section, elset=Part-3-2_Set-8, material=steel-NEW, offset=SNEG
5.5, 5
** Section: Section-4mm
*Shell Section, elset=Part-3-2_Set-10, material=steel-NEW
4.5, 5
** Section: Section-6mm
*Shell Section, elset=Part-3-2_Set-7, material=steel-NEW, offset=SPOS
5.5, 5
*System
*Node
    557,           0.,          50.,           0.
*Nset, nset=Set-1
  13,  14,  18,  20,  21,  25,  27,  29,  31,  32,  96,  97,  98,  99, 127, 128
 138, 139, 162, 163, 189, 211, 231, 253, 261, 262, 263, 264
*Nset, nset=Set-2
   3,   4,   9,  10,  16,  23,  24,  26,  28,  30,  44,  45,  46,  47,  74,  75
  76,  77, 109, 110, 156, 157, 168, 169, 170, 192, 212, 234
*Nset, nset=_PickedSet37
557,
*Nset, nset=_PickedSet42
557,
*Surface, type=NODE, name=Set-2_CNS_
Set-2, 1.
** Constraint: Constraint-1
*Coupling, constraint name=Constraint-1, ref node=_PickedSet37, surface=Set-2_CNS_
*Kinematic
*Amplitude, name=Amp-1
             0.,              0.,              1.,              1.
** 
** MATERIALS
** 
*Material, name=steel-NEW
*Density
 7.89e-09,
*Elastic
188920., 0.3
*Plastic
  268.48,         0.
 274.598, 0.00133179
 280.251, 0.00194973
 281.621,  0.0120713
 308.124,  0.0192755
 328.118,  0.0241691
 346.751,  0.0295511
 364.322,  0.0354144
 381.909,  0.0423184
 400.769,  0.0511637
 418.352,  0.0610219
  433.67,  0.0714987
** ----------------------------------------------------------------
** 
** STEP: Step-1
** 
*IMPERFECTION, file=Job-44, step=1
1, 5,
*Step, name=Step-1, nlgeom=YES
*Static
1., 1., 1e-05, 1.
** 
** BOUNDARY CONDITIONS
** 
** Name: BC-1 Type: Symmetry/Antisymmetry/Encastre
*Boundary
Set-1, ENCASTRE
** Name: BC-2 Type: Displacement/Rotation
*Boundary, amplitude=Amp-1
_PickedSet42, 1, 1
_PickedSet42, 2, 2
_PickedSet42, 3, 3, -2.
_PickedSet42, 4, 4
_PickedSet42, 5, 5
_PickedSet42, 6, 6
** 
** OUTPUT REQUESTS
** 
*Restart, write, frequency=0
** 
** FIELD OUTPUT: F-Output-1
** 
*Output, field, variable=PRESELECT, number interval=100
** 
** HISTORY OUTPUT: H-Output-1
** 
*Output, history, variable=PRESELECT
*End Step
