*Heading
IGAforCAD same-parent-imperfection trimmed trapezoid ultimate reference
*Preprint, echo=NO, model=NO, history=NO, contact=NO
*Node
1, 0, 0, 0
2, 0.625, 0, 0
3, 1.25, 0, 0
4, 1.875, 0, 0
5, 2.5, 0, 0
6, 3.125, 0, 0
7, 3.75, 0, 0
8, 4.375, 0, 0
9, 5, 0, 0
10, 5.625, 0, 0
11, 6.25, 0, 0
12, 6.8750000000000009, 0, 0
13, 7.5, 0, 0
14, 8.125, 0, 0
15, 8.75, 0, 0
16, 9.375, 0, 0
17, 10, 0, 0
18, 10.625, 0, 0
19, 11.25, 0, 0
20, 11.875, 0, 0
** ... 25901 like lines cut
*Element, type=S4R, elset=EALL
1, 1, 2, 163, 162
2, 2, 3, 164, 163
3, 3, 4, 165, 164
4, 4, 5, 166, 165
5, 5, 6, 167, 166
6, 6, 7, 168, 167
7, 7, 8, 169, 168
8, 8, 9, 170, 169
9, 9, 10, 171, 170
10, 10, 11, 172, 171
11, 11, 12, 173, 172
12, 12, 13, 174, 173
13, 13, 14, 175, 174
14, 14, 15, 176, 175
15, 15, 16, 177, 176
16, 16, 17, 178, 177
17, 17, 18, 179, 178
18, 18, 19, 180, 179
19, 19, 20, 181, 180
20, 20, 21, 182, 181
** ... 25580 like lines cut
*Nset, nset=ROOT
1, 162, 323, 484, 645, 806, 967, 1128, 1289, 1450, 1611, 1772, 1933, 2094, 2255, 2416
2577, 2738, 2899, 3060, 3221, 3382, 3543, 3704, 3865, 4026, 4187, 4348, 4509, 4670, 4831, 4992
5153, 5314, 5475, 5636, 5797, 5958, 6119, 6280, 6441, 6602, 6763, 6924, 7085, 7246, 7407, 7568
7729, 7890, 8051, 8212, 8373, 8534, 8695, 8856, 9017, 9178, 9339, 9500, 9661, 9822, 9983, 10144
10305, 10466, 10627, 10788, 10949, 11110, 11271, 11432, 11593, 11754, 11915, 12076, 12237, 12398, 12559, 12720
12881, 13042, 13203, 13364, 13525, 13686, 13847, 14008, 14169, 14330, 14491, 14652, 14813, 14974, 15135, 15296
15457, 15618, 15779, 15940, 16101, 16262, 16423, 16584, 16745, 16906, 17067, 17228, 17389, 17550, 17711, 17872
18033, 18194, 18355, 18516, 18677, 18838, 18999, 19160, 19321, 19482, 19643, 19804, 19965, 20126, 20287, 20448
20609, 20770, 20931, 21092, 21253, 21414, 21575, 21736, 21897, 22058, 22219, 22380, 22541, 22702, 22863, 23024
23185, 23346, 23507, 23668, 23829, 23990, 24151, 24312, 24473, 24634, 24795, 24956, 25117, 25278, 25439, 25600
25761
*Nset, nset=RIGHT
161, 322, 483, 644, 805, 966, 1127, 1288, 1449, 1610, 1771, 1932, 2093, 2254, 2415, 2576
2737, 2898, 3059, 3220, 3381, 3542, 3703, 3864, 4025, 4186, 4347, 4508, 4669, 4830, 4991, 5152
5313, 5474, 5635, 5796, 5957, 6118, 6279, 6440, 6601, 6762, 6923, 7084, 7245, 7406, 7567, 7728
7889, 8050, 8211, 8372, 8533, 8694, 8855, 9016, 9177, 9338, 9499, 9660, 9821, 9982, 10143, 10304
10465, 10626, 10787, 10948, 11109, 11270, 11431, 11592, 11753, 11914, 12075, 12236, 12397, 12558, 12719, 12880
13041, 13202, 13363, 13524, 13685, 13846, 14007, 14168, 14329, 14490, 14651, 14812, 14973, 15134, 15295, 15456
15617, 15778, 15939, 16100, 16261, 16422, 16583, 16744, 16905, 17066, 17227, 17388, 17549, 17710, 17871, 18032
18193, 18354, 18515, 18676, 18837, 18998, 19159, 19320, 19481, 19642, 19803, 19964, 20125, 20286, 20447, 20608
20769, 20930, 21091, 21252, 21413, 21574, 21735, 21896, 22057, 22218, 22379, 22540, 22701, 22862, 23023, 23184
23345, 23506, 23667, 23828, 23989, 24150, 24311, 24472, 24633, 24794, 24955, 25116, 25277, 25438, 25599, 25760
25921
*Node, nset=RP
25922, 100, 50, 0
*Surface, type=NODE, name=RIGHT_SURFACE
RIGHT, 1.0
*Coupling, constraint name=RIGHT_RBE2, ref node=RP, surface=RIGHT_SURFACE
*Kinematic
1, 6
*Material, name=STEEL
*Elastic
206000, 0.3
*Plastic
235, 0
1235, 1
*Shell Section, elset=EALL, material=STEEL
1, 5
*Boundary
ROOT, 1, 6, 0.
RP, 2, 2, 0.
RP, 3, 3, 0.
RP, 4, 4, 0.
RP, 5, 5, 0.
RP, 6, 6, 0.
*Step, name=COMPRESSION, nlgeom=YES, inc=10000
*Static
0.0025000000000000001, 1., 1e-08, 0.0050000000000000001
*Boundary
RP, 1, 1, -2
*Output, field, frequency=1
*Node Output
U, UR, RF, RM
*Element Output, directions=YES
S, LE, PEEQ
*End Step
