*Heading
IGAforCAD multipatch Nitsche buckling alignment reference
*Node
1, 0, 0, 0
2, 2.5, 0, 0
3, 5, 0, 0
4, 7.5, 0, 0
5, 10, 0, 0
6, 12.5, 0, 0
7, 15, 0, 0
8, 17.5, 0, 0
9, 20, 0, 0
10, 22.5, 0, 0
11, 25, 0, 0
12, 27.5, 0, 0
13, 30, 0, 0
14, 32.5, 0, 0
15, 35, 0, 0
16, 37.5, 0, 0
17, 40, 0, 0
18, 42.5, 0, 0
19, 45, 0, 0
20, 47.5, 0, 0
** ... 3301 like lines cut
*Element, type=S4R, elset=EALL
1, 1, 2, 83, 82
2, 2, 3, 84, 83
3, 3, 4, 85, 84
4, 4, 5, 86, 85
5, 5, 6, 87, 86
6, 6, 7, 88, 87
7, 7, 8, 89, 88
8, 8, 9, 90, 89
9, 9, 10, 91, 90
10, 10, 11, 92, 91
11, 11, 12, 93, 92
12, 12, 13, 94, 93
13, 13, 14, 95, 94
14, 14, 15, 96, 95
15, 15, 16, 97, 96
16, 16, 17, 98, 97
17, 17, 18, 99, 98
18, 18, 19, 100, 99
19, 19, 20, 101, 100
20, 20, 21, 102, 101
** ... 3180 like lines cut
*Nset, nset=ROOT
1, 82, 163, 244, 325, 406, 487, 568, 649, 730, 811, 892, 973, 1054, 1135, 1216
1297, 1378, 1459, 1540, 1621, 1702, 1783, 1864, 1945, 2026, 2107, 2188, 2269, 2350, 2431, 2512
2593, 2674, 2755, 2836, 2917, 2998, 3079, 3160, 3241
*Nset, nset=RIGHT
81, 162, 243, 324, 405, 486, 567, 648, 729, 810, 891, 972, 1053, 1134, 1215, 1296
1377, 1458, 1539, 1620, 1701, 1782, 1863, 1944, 2025, 2106, 2187, 2268, 2349, 2430, 2511, 2592
2673, 2754, 2835, 2916, 2997, 3078, 3159, 3240, 3321
*Node, nset=RP
3322, 200, 50, 0.0
*Surface, type=NODE, name=RIGHT_SURFACE
RIGHT, 1.0
*Coupling, constraint name=RIGHT_RBE2, ref node=RP, surface=RIGHT_SURFACE
*Kinematic
1, 6
*Material, name=STEEL
*Elastic
206000, 0.29999999999999999
*Plastic
1000000000, 0.0
*Shell Section, elset=EALL, material=STEEL
1, 5
*Step, name=COMPRESSION, nlgeom=YES, inc=200
*Static, direct
0.025, 1.0
*Boundary
ROOT, 1, 6, 0.0
RP, 2, 6, 0.0
RP, 1, 1, -0.20000000000000001
*Output, field, frequency=1
*Node Output
U, RF
*Element Output, directions=YES, allsectionpts
S, PEEQ
*End Step
